#
# *******************
# Calendar Parameters
# *******************
 &CAL_NML
 TheCalendar='gregorian',
 startDate_1=19920101,
 startDate_2=000000,
 calendarDumps=.true.,
##############################################################################
### All the available parameters and their defaults, just for your information
### TheCalendar=' ',
### startDate_1=0,
### startDate_2=0,
### calendarDumps=.false.,
##############################################################################
 &
