#
# *********************
# External Forcing Data
# *********************
##############################################################################
 &EXF_NML_01
 &

 &EXF_NML_02
 &

 &EXF_NML_03
 &

 &EXF_NML_04
 &

 &EXF_NML_OBCS
 obcsSstartdate1=19920101,   
 obcsSstartdate2=0,   
 obcsSperiod=2592000,
 obcsWstartdate1=19920101,   
 obcsWstartdate2=0,   
 obcsWperiod=2592000,
 &
